<routers>
	<vType id="man_9.26_3_3.8" accel="9.260000" decel="3.000000" length="3.800000" carFollowModel="Krauss" maxSpeed="22.220000" color="0,0,1" />
	<vType id="man_9.26_3_4.2" accel="9.260000" decel="3.000000" length="4.200000" carFollowModel="Krauss" maxSpeed="22.220000" color="0,0,1" />
	<vType id="man_9.26_3_4.6" accel="9.260000" decel="3.000000" length="4.600000" carFollowModel="Krauss" maxSpeed="22.220000" color="0,0,1" />
	<vType id="man_9.26_3_5.0" accel="9.260000" decel="3.000000" length="5.000000" carFollowModel="Krauss" maxSpeed="22.220000" color="0,0,1" />
	<vType id="man_9.26_3_5.4" accel="9.260000" decel="3.000000" length="5.400000" carFollowModel="Krauss" maxSpeed="22.220000" color="0,0,1" />
	<vType id="man_9.26_3.4_3.8" accel="9.260000" decel="3.400000" length="3.800000" carFollowModel="Krauss" maxSpeed="22.220000" color="0,0,1" />
	<vType id="man_9.26_3.4_4.2" accel="9.260000" decel="3.400000" length="4.200000" carFollowModel="Krauss" maxSpeed="22.220000" color="0,0,1" />
	<vType id="man_9.26_3.4_4.6" accel="9.260000" decel="3.400000" length="4.600000" carFollowModel="Krauss" maxSpeed="22.220000" color="0,0,1" />
	<vType id="man_9.26_3.4_5.0" accel="9.260000" decel="3.400000" length="5.000000" carFollowModel="Krauss" maxSpeed="22.220000" color="0,0,1" />
	<vType id="man_9.26_3.4_5.4" accel="9.260000" decel="3.400000" length="5.400000" carFollowModel="Krauss" maxSpeed="22.220000" color="0,0,1" />
	<vType id="man_9.26_3.8_3.8" accel="9.260000" decel="3.800000" length="3.800000" carFollowModel="Krauss" maxSpeed="22.220000" color="0,0,1" />
	<vType id="man_9.26_3.8_4.2" accel="9.260000" decel="3.800000" length="4.200000" carFollowModel="Krauss" maxSpeed="22.220000" color="0,0,1" />
	<vType id="man_9.26_3.8_4.6" accel="9.260000" decel="3.800000" length="4.600000" carFollowModel="Krauss" maxSpeed="22.220000" color="0,0,1" />
	<vType id="man_9.26_3.8_5.0" accel="9.260000" decel="3.800000" length="5.000000" carFollowModel="Krauss" maxSpeed="22.220000" color="0,0,1" />
	<vType id="man_9.26_3.8_5.4" accel="9.260000" decel="3.800000" length="5.400000" carFollowModel="Krauss" maxSpeed="22.220000" color="0,0,1" />
	<vType id="man_9.26_4.2_3.8" accel="9.260000" decel="4.200000" length="3.800000" carFollowModel="Krauss" maxSpeed="22.220000" color="0,0,1" />
	<vType id="man_9.26_4.2_4.2" accel="9.260000" decel="4.200000" length="4.200000" carFollowModel="Krauss" maxSpeed="22.220000" color="0,0,1" />
	<vType id="man_9.26_4.2_4.6" accel="9.260000" decel="4.200000" length="4.600000" carFollowModel="Krauss" maxSpeed="22.220000" color="0,0,1" />
	<vType id="man_9.26_4.2_5.0" accel="9.260000" decel="4.200000" length="5.000000" carFollowModel="Krauss" maxSpeed="22.220000" color="0,0,1" />
	<vType id="man_9.26_4.2_5.4" accel="9.260000" decel="4.200000" length="5.400000" carFollowModel="Krauss" maxSpeed="22.220000" color="0,0,1" />
	<vType id="man_9.26_4.4_3.8" accel="9.260000" decel="4.400000" length="3.800000" carFollowModel="Krauss" maxSpeed="22.220000" color="0,0,1" />
	<vType id="man_9.26_4.4_4.2" accel="9.260000" decel="4.400000" length="4.200000" carFollowModel="Krauss" maxSpeed="22.220000" color="0,0,1" />
	<vType id="man_9.26_4.4_4.6" accel="9.260000" decel="4.400000" length="4.600000" carFollowModel="Krauss" maxSpeed="22.220000" color="0,0,1" />
	<vType id="man_9.26_4.4_5.0" accel="9.260000" decel="4.400000" length="5.000000" carFollowModel="Krauss" maxSpeed="22.220000" color="0,0,1" />
	<vType id="man_9.26_4.4_5.4" accel="9.260000" decel="4.400000" length="5.400000" carFollowModel="Krauss" maxSpeed="22.220000" color="0,0,1" />
	<vType id="man_5.56_3_3.8" accel="5.560000" decel="3.000000" length="3.800000" carFollowModel="Krauss" maxSpeed="22.220000" color="0,0,1" />
	<vType id="man_5.56_3_4.2" accel="5.560000" decel="3.000000" length="4.200000" carFollowModel="Krauss" maxSpeed="22.220000" color="0,0,1" />
	<vType id="man_5.56_3_4.6" accel="5.560000" decel="3.000000" length="4.600000" carFollowModel="Krauss" maxSpeed="22.220000" color="0,0,1" />
	<vType id="man_5.56_3_5.0" accel="5.560000" decel="3.000000" length="5.000000" carFollowModel="Krauss" maxSpeed="22.220000" color="0,0,1" />
	<vType id="man_5.56_3_5.4" accel="5.560000" decel="3.000000" length="5.400000" carFollowModel="Krauss" maxSpeed="22.220000" color="0,0,1" />
	<vType id="man_5.56_3.4_3.8" accel="5.560000" decel="3.400000" length="3.800000" carFollowModel="Krauss" maxSpeed="22.220000" color="0,0,1" />
	<vType id="man_5.56_3.4_4.2" accel="5.560000" decel="3.400000" length="4.200000" carFollowModel="Krauss" maxSpeed="22.220000" color="0,0,1" />
	<vType id="man_5.56_3.4_4.6" accel="5.560000" decel="3.400000" length="4.600000" carFollowModel="Krauss" maxSpeed="22.220000" color="0,0,1" />
	<vType id="man_5.56_3.4_5.0" accel="5.560000" decel="3.400000" length="5.000000" carFollowModel="Krauss" maxSpeed="22.220000" color="0,0,1" />
	<vType id="man_5.56_3.4_5.4" accel="5.560000" decel="3.400000" length="5.400000" carFollowModel="Krauss" maxSpeed="22.220000" color="0,0,1" />
	<vType id="man_5.56_3.8_3.8" accel="5.560000" decel="3.800000" length="3.800000" carFollowModel="Krauss" maxSpeed="22.220000" color="0,0,1" />
	<vType id="man_5.56_3.8_4.2" accel="5.560000" decel="3.800000" length="4.200000" carFollowModel="Krauss" maxSpeed="22.220000" color="0,0,1" />
	<vType id="man_5.56_3.8_4.6" accel="5.560000" decel="3.800000" length="4.600000" carFollowModel="Krauss" maxSpeed="22.220000" color="0,0,1" />
	<vType id="man_5.56_3.8_5.0" accel="5.560000" decel="3.800000" length="5.000000" carFollowModel="Krauss" maxSpeed="22.220000" color="0,0,1" />
	<vType id="man_5.56_3.8_5.4" accel="5.560000" decel="3.800000" length="5.400000" carFollowModel="Krauss" maxSpeed="22.220000" color="0,0,1" />
	<vType id="man_5.56_4.2_3.8" accel="5.560000" decel="4.200000" length="3.800000" carFollowModel="Krauss" maxSpeed="22.220000" color="0,0,1" />
	<vType id="man_5.56_4.2_4.2" accel="5.560000" decel="4.200000" length="4.200000" carFollowModel="Krauss" maxSpeed="22.220000" color="0,0,1" />
	<vType id="man_5.56_4.2_4.6" accel="5.560000" decel="4.200000" length="4.600000" carFollowModel="Krauss" maxSpeed="22.220000" color="0,0,1" />
	<vType id="man_5.56_4.2_5.0" accel="5.560000" decel="4.200000" length="5.000000" carFollowModel="Krauss" maxSpeed="22.220000" color="0,0,1" />
	<vType id="man_5.56_4.2_5.4" accel="5.560000" decel="4.200000" length="5.400000" carFollowModel="Krauss" maxSpeed="22.220000" color="0,0,1" />
	<vType id="man_5.56_4.4_3.8" accel="5.560000" decel="4.400000" length="3.800000" carFollowModel="Krauss" maxSpeed="22.220000" color="0,0,1" />
	<vType id="man_5.56_4.4_4.2" accel="5.560000" decel="4.400000" length="4.200000" carFollowModel="Krauss" maxSpeed="22.220000" color="0,0,1" />
	<vType id="man_5.56_4.4_4.6" accel="5.560000" decel="4.400000" length="4.600000" carFollowModel="Krauss" maxSpeed="22.220000" color="0,0,1" />
	<vType id="man_5.56_4.4_5.0" accel="5.560000" decel="4.400000" length="5.000000" carFollowModel="Krauss" maxSpeed="22.220000" color="0,0,1" />
	<vType id="man_5.56_4.4_5.4" accel="5.560000" decel="4.400000" length="5.400000" carFollowModel="Krauss" maxSpeed="22.220000" color="0,0,1" />
	<vType id="man_3.96_3_3.8" accel="3.960000" decel="3.000000" length="3.800000" carFollowModel="Krauss" maxSpeed="22.220000" color="0,0,1" />
	<vType id="man_3.96_3_4.2" accel="3.960000" decel="3.000000" length="4.200000" carFollowModel="Krauss" maxSpeed="22.220000" color="0,0,1" />
	<vType id="man_3.96_3_4.6" accel="3.960000" decel="3.000000" length="4.600000" carFollowModel="Krauss" maxSpeed="22.220000" color="0,0,1" />
	<vType id="man_3.96_3_5.0" accel="3.960000" decel="3.000000" length="5.000000" carFollowModel="Krauss" maxSpeed="22.220000" color="0,0,1" />
	<vType id="man_3.96_3_5.4" accel="3.960000" decel="3.000000" length="5.400000" carFollowModel="Krauss" maxSpeed="22.220000" color="0,0,1" />
	<vType id="man_3.96_3.4_3.8" accel="3.960000" decel="3.400000" length="3.800000" carFollowModel="Krauss" maxSpeed="22.220000" color="0,0,1" />
	<vType id="man_3.96_3.4_4.2" accel="3.960000" decel="3.400000" length="4.200000" carFollowModel="Krauss" maxSpeed="22.220000" color="0,0,1" />
	<vType id="man_3.96_3.4_4.6" accel="3.960000" decel="3.400000" length="4.600000" carFollowModel="Krauss" maxSpeed="22.220000" color="0,0,1" />
	<vType id="man_3.96_3.4_5.0" accel="3.960000" decel="3.400000" length="5.000000" carFollowModel="Krauss" maxSpeed="22.220000" color="0,0,1" />
	<vType id="man_3.96_3.4_5.4" accel="3.960000" decel="3.400000" length="5.400000" carFollowModel="Krauss" maxSpeed="22.220000" color="0,0,1" />
	<vType id="man_3.96_3.8_3.8" accel="3.960000" decel="3.800000" length="3.800000" carFollowModel="Krauss" maxSpeed="22.220000" color="0,0,1" />
	<vType id="man_3.96_3.8_4.2" accel="3.960000" decel="3.800000" length="4.200000" carFollowModel="Krauss" maxSpeed="22.220000" color="0,0,1" />
	<vType id="man_3.96_3.8_4.6" accel="3.960000" decel="3.800000" length="4.600000" carFollowModel="Krauss" maxSpeed="22.220000" color="0,0,1" />
	<vType id="man_3.96_3.8_5.0" accel="3.960000" decel="3.800000" length="5.000000" carFollowModel="Krauss" maxSpeed="22.220000" color="0,0,1" />
	<vType id="man_3.96_3.8_5.4" accel="3.960000" decel="3.800000" length="5.400000" carFollowModel="Krauss" maxSpeed="22.220000" color="0,0,1" />
	<vType id="man_3.96_4.2_3.8" accel="3.960000" decel="4.200000" length="3.800000" carFollowModel="Krauss" maxSpeed="22.220000" color="0,0,1" />
	<vType id="man_3.96_4.2_4.2" accel="3.960000" decel="4.200000" length="4.200000" carFollowModel="Krauss" maxSpeed="22.220000" color="0,0,1" />
	<vType id="man_3.96_4.2_4.6" accel="3.960000" decel="4.200000" length="4.600000" carFollowModel="Krauss" maxSpeed="22.220000" color="0,0,1" />
	<vType id="man_3.96_4.2_5.0" accel="3.960000" decel="4.200000" length="5.000000" carFollowModel="Krauss" maxSpeed="22.220000" color="0,0,1" />
	<vType id="man_3.96_4.2_5.4" accel="3.960000" decel="4.200000" length="5.400000" carFollowModel="Krauss" maxSpeed="22.220000" color="0,0,1" />
	<vType id="man_3.96_4.4_3.8" accel="3.960000" decel="4.400000" length="3.800000" carFollowModel="Krauss" maxSpeed="22.220000" color="0,0,1" />
	<vType id="man_3.96_4.4_4.2" accel="3.960000" decel="4.400000" length="4.200000" carFollowModel="Krauss" maxSpeed="22.220000" color="0,0,1" />
	<vType id="man_3.96_4.4_4.6" accel="3.960000" decel="4.400000" length="4.600000" carFollowModel="Krauss" maxSpeed="22.220000" color="0,0,1" />
	<vType id="man_3.96_4.4_5.0" accel="3.960000" decel="4.400000" length="5.000000" carFollowModel="Krauss" maxSpeed="22.220000" color="0,0,1" />
	<vType id="man_3.96_4.4_5.4" accel="3.960000" decel="4.400000" length="5.400000" carFollowModel="Krauss" maxSpeed="22.220000" color="0,0,1" />
	<vType id="man_3.09_3_3.8" accel="3.090000" decel="3.000000" length="3.800000" carFollowModel="Krauss" maxSpeed="22.220000" color="0,0,1" />
	<vType id="man_3.09_3_4.2" accel="3.090000" decel="3.000000" length="4.200000" carFollowModel="Krauss" maxSpeed="22.220000" color="0,0,1" />
	<vType id="man_3.09_3_4.6" accel="3.090000" decel="3.000000" length="4.600000" carFollowModel="Krauss" maxSpeed="22.220000" color="0,0,1" />
	<vType id="man_3.09_3_5.0" accel="3.090000" decel="3.000000" length="5.000000" carFollowModel="Krauss" maxSpeed="22.220000" color="0,0,1" />
	<vType id="man_3.09_3_5.4" accel="3.090000" decel="3.000000" length="5.400000" carFollowModel="Krauss" maxSpeed="22.220000" color="0,0,1" />
	<vType id="man_3.09_3.4_3.8" accel="3.090000" decel="3.400000" length="3.800000" carFollowModel="Krauss" maxSpeed="22.220000" color="0,0,1" />
	<vType id="man_3.09_3.4_4.2" accel="3.090000" decel="3.400000" length="4.200000" carFollowModel="Krauss" maxSpeed="22.220000" color="0,0,1" />
	<vType id="man_3.09_3.4_4.6" accel="3.090000" decel="3.400000" length="4.600000" carFollowModel="Krauss" maxSpeed="22.220000" color="0,0,1" />
	<vType id="man_3.09_3.4_5.0" accel="3.090000" decel="3.400000" length="5.000000" carFollowModel="Krauss" maxSpeed="22.220000" color="0,0,1" />
	<vType id="man_3.09_3.4_5.4" accel="3.090000" decel="3.400000" length="5.400000" carFollowModel="Krauss" maxSpeed="22.220000" color="0,0,1" />
	<vType id="man_3.09_3.8_3.8" accel="3.090000" decel="3.800000" length="3.800000" carFollowModel="Krauss" maxSpeed="22.220000" color="0,0,1" />
	<vType id="man_3.09_3.8_4.2" accel="3.090000" decel="3.800000" length="4.200000" carFollowModel="Krauss" maxSpeed="22.220000" color="0,0,1" />
	<vType id="man_3.09_3.8_4.6" accel="3.090000" decel="3.800000" length="4.600000" carFollowModel="Krauss" maxSpeed="22.220000" color="0,0,1" />
	<vType id="man_3.09_3.8_5.0" accel="3.090000" decel="3.800000" length="5.000000" carFollowModel="Krauss" maxSpeed="22.220000" color="0,0,1" />
	<vType id="man_3.09_3.8_5.4" accel="3.090000" decel="3.800000" length="5.400000" carFollowModel="Krauss" maxSpeed="22.220000" color="0,0,1" />
	<vType id="man_3.09_4.2_3.8" accel="3.090000" decel="4.200000" length="3.800000" carFollowModel="Krauss" maxSpeed="22.220000" color="0,0,1" />
	<vType id="man_3.09_4.2_4.2" accel="3.090000" decel="4.200000" length="4.200000" carFollowModel="Krauss" maxSpeed="22.220000" color="0,0,1" />
	<vType id="man_3.09_4.2_4.6" accel="3.090000" decel="4.200000" length="4.600000" carFollowModel="Krauss" maxSpeed="22.220000" color="0,0,1" />
	<vType id="man_3.09_4.2_5.0" accel="3.090000" decel="4.200000" length="5.000000" carFollowModel="Krauss" maxSpeed="22.220000" color="0,0,1" />
	<vType id="man_3.09_4.2_5.4" accel="3.090000" decel="4.200000" length="5.400000" carFollowModel="Krauss" maxSpeed="22.220000" color="0,0,1" />
	<vType id="man_3.09_4.4_3.8" accel="3.090000" decel="4.400000" length="3.800000" carFollowModel="Krauss" maxSpeed="22.220000" color="0,0,1" />
	<vType id="man_3.09_4.4_4.2" accel="3.090000" decel="4.400000" length="4.200000" carFollowModel="Krauss" maxSpeed="22.220000" color="0,0,1" />
	<vType id="man_3.09_4.4_4.6" accel="3.090000" decel="4.400000" length="4.600000" carFollowModel="Krauss" maxSpeed="22.220000" color="0,0,1" />
	<vType id="man_3.09_4.4_5.0" accel="3.090000" decel="4.400000" length="5.000000" carFollowModel="Krauss" maxSpeed="22.220000" color="0,0,1" />
	<vType id="man_3.09_4.4_5.4" accel="3.090000" decel="4.400000" length="5.400000" carFollowModel="Krauss" maxSpeed="22.220000" color="0,0,1" />
	<vType id="man_2.53_3_3.8" accel="2.530000" decel="3.000000" length="3.800000" carFollowModel="Krauss" maxSpeed="22.220000" color="0,0,1" />
	<vType id="man_2.53_3_4.2" accel="2.530000" decel="3.000000" length="4.200000" carFollowModel="Krauss" maxSpeed="22.220000" color="0,0,1" />
	<vType id="man_2.53_3_4.6" accel="2.530000" decel="3.000000" length="4.600000" carFollowModel="Krauss" maxSpeed="22.220000" color="0,0,1" />
	<vType id="man_2.53_3_5.0" accel="2.530000" decel="3.000000" length="5.000000" carFollowModel="Krauss" maxSpeed="22.220000" color="0,0,1" />
	<vType id="man_2.53_3_5.4" accel="2.530000" decel="3.000000" length="5.400000" carFollowModel="Krauss" maxSpeed="22.220000" color="0,0,1" />
	<vType id="man_2.53_3.4_3.8" accel="2.530000" decel="3.400000" length="3.800000" carFollowModel="Krauss" maxSpeed="22.220000" color="0,0,1" />
	<vType id="man_2.53_3.4_4.2" accel="2.530000" decel="3.400000" length="4.200000" carFollowModel="Krauss" maxSpeed="22.220000" color="0,0,1" />
	<vType id="man_2.53_3.4_4.6" accel="2.530000" decel="3.400000" length="4.600000" carFollowModel="Krauss" maxSpeed="22.220000" color="0,0,1" />
	<vType id="man_2.53_3.4_5.0" accel="2.530000" decel="3.400000" length="5.000000" carFollowModel="Krauss" maxSpeed="22.220000" color="0,0,1" />
	<vType id="man_2.53_3.4_5.4" accel="2.530000" decel="3.400000" length="5.400000" carFollowModel="Krauss" maxSpeed="22.220000" color="0,0,1" />
	<vType id="man_2.53_3.8_3.8" accel="2.530000" decel="3.800000" length="3.800000" carFollowModel="Krauss" maxSpeed="22.220000" color="0,0,1" />
	<vType id="man_2.53_3.8_4.2" accel="2.530000" decel="3.800000" length="4.200000" carFollowModel="Krauss" maxSpeed="22.220000" color="0,0,1" />
	<vType id="man_2.53_3.8_4.6" accel="2.530000" decel="3.800000" length="4.600000" carFollowModel="Krauss" maxSpeed="22.220000" color="0,0,1" />
	<vType id="man_2.53_3.8_5.0" accel="2.530000" decel="3.800000" length="5.000000" carFollowModel="Krauss" maxSpeed="22.220000" color="0,0,1" />
	<vType id="man_2.53_3.8_5.4" accel="2.530000" decel="3.800000" length="5.400000" carFollowModel="Krauss" maxSpeed="22.220000" color="0,0,1" />
	<vType id="man_2.53_4.2_3.8" accel="2.530000" decel="4.200000" length="3.800000" carFollowModel="Krauss" maxSpeed="22.220000" color="0,0,1" />
	<vType id="man_2.53_4.2_4.2" accel="2.530000" decel="4.200000" length="4.200000" carFollowModel="Krauss" maxSpeed="22.220000" color="0,0,1" />
	<vType id="man_2.53_4.2_4.6" accel="2.530000" decel="4.200000" length="4.600000" carFollowModel="Krauss" maxSpeed="22.220000" color="0,0,1" />
	<vType id="man_2.53_4.2_5.0" accel="2.530000" decel="4.200000" length="5.000000" carFollowModel="Krauss" maxSpeed="22.220000" color="0,0,1" />
	<vType id="man_2.53_4.2_5.4" accel="2.530000" decel="4.200000" length="5.400000" carFollowModel="Krauss" maxSpeed="22.220000" color="0,0,1" />
	<vType id="man_2.53_4.4_3.8" accel="2.530000" decel="4.400000" length="3.800000" carFollowModel="Krauss" maxSpeed="22.220000" color="0,0,1" />
	<vType id="man_2.53_4.4_4.2" accel="2.530000" decel="4.400000" length="4.200000" carFollowModel="Krauss" maxSpeed="22.220000" color="0,0,1" />
	<vType id="man_2.53_4.4_4.6" accel="2.530000" decel="4.400000" length="4.600000" carFollowModel="Krauss" maxSpeed="22.220000" color="0,0,1" />
	<vType id="man_2.53_4.4_5.0" accel="2.530000" decel="4.400000" length="5.000000" carFollowModel="Krauss" maxSpeed="22.220000" color="0,0,1" />
	<vType id="man_2.53_4.4_5.4" accel="2.530000" decel="4.400000" length="5.400000" carFollowModel="Krauss" maxSpeed="22.220000" color="0,0,1" />
	<vType id="man_2.14_3_3.8" accel="2.140000" decel="3.000000" length="3.800000" carFollowModel="Krauss" maxSpeed="22.220000" color="0,0,1" />
	<vType id="man_2.14_3_4.2" accel="2.140000" decel="3.000000" length="4.200000" carFollowModel="Krauss" maxSpeed="22.220000" color="0,0,1" />
	<vType id="man_2.14_3_4.6" accel="2.140000" decel="3.000000" length="4.600000" carFollowModel="Krauss" maxSpeed="22.220000" color="0,0,1" />
	<vType id="man_2.14_3_5.0" accel="2.140000" decel="3.000000" length="5.000000" carFollowModel="Krauss" maxSpeed="22.220000" color="0,0,1" />
	<vType id="man_2.14_3_5.4" accel="2.140000" decel="3.000000" length="5.400000" carFollowModel="Krauss" maxSpeed="22.220000" color="0,0,1" />
	<vType id="man_2.14_3.4_3.8" accel="2.140000" decel="3.400000" length="3.800000" carFollowModel="Krauss" maxSpeed="22.220000" color="0,0,1" />
	<vType id="man_2.14_3.4_4.2" accel="2.140000" decel="3.400000" length="4.200000" carFollowModel="Krauss" maxSpeed="22.220000" color="0,0,1" />
	<vType id="man_2.14_3.4_4.6" accel="2.140000" decel="3.400000" length="4.600000" carFollowModel="Krauss" maxSpeed="22.220000" color="0,0,1" />
	<vType id="man_2.14_3.4_5.0" accel="2.140000" decel="3.400000" length="5.000000" carFollowModel="Krauss" maxSpeed="22.220000" color="0,0,1" />
	<vType id="man_2.14_3.4_5.4" accel="2.140000" decel="3.400000" length="5.400000" carFollowModel="Krauss" maxSpeed="22.220000" color="0,0,1" />
	<vType id="man_2.14_3.8_3.8" accel="2.140000" decel="3.800000" length="3.800000" carFollowModel="Krauss" maxSpeed="22.220000" color="0,0,1" />
	<vType id="man_2.14_3.8_4.2" accel="2.140000" decel="3.800000" length="4.200000" carFollowModel="Krauss" maxSpeed="22.220000" color="0,0,1" />
	<vType id="man_2.14_3.8_4.6" accel="2.140000" decel="3.800000" length="4.600000" carFollowModel="Krauss" maxSpeed="22.220000" color="0,0,1" />
	<vType id="man_2.14_3.8_5.0" accel="2.140000" decel="3.800000" length="5.000000" carFollowModel="Krauss" maxSpeed="22.220000" color="0,0,1" />
	<vType id="man_2.14_3.8_5.4" accel="2.140000" decel="3.800000" length="5.400000" carFollowModel="Krauss" maxSpeed="22.220000" color="0,0,1" />
	<vType id="man_2.14_4.2_3.8" accel="2.140000" decel="4.200000" length="3.800000" carFollowModel="Krauss" maxSpeed="22.220000" color="0,0,1" />
	<vType id="man_2.14_4.2_4.2" accel="2.140000" decel="4.200000" length="4.200000" carFollowModel="Krauss" maxSpeed="22.220000" color="0,0,1" />
	<vType id="man_2.14_4.2_4.6" accel="2.140000" decel="4.200000" length="4.600000" carFollowModel="Krauss" maxSpeed="22.220000" color="0,0,1" />
	<vType id="man_2.14_4.2_5.0" accel="2.140000" decel="4.200000" length="5.000000" carFollowModel="Krauss" maxSpeed="22.220000" color="0,0,1" />
	<vType id="man_2.14_4.2_5.4" accel="2.140000" decel="4.200000" length="5.400000" carFollowModel="Krauss" maxSpeed="22.220000" color="0,0,1" />
	<vType id="man_2.14_4.4_3.8" accel="2.140000" decel="4.400000" length="3.800000" carFollowModel="Krauss" maxSpeed="22.220000" color="0,0,1" />
	<vType id="man_2.14_4.4_4.2" accel="2.140000" decel="4.400000" length="4.200000" carFollowModel="Krauss" maxSpeed="22.220000" color="0,0,1" />
	<vType id="man_2.14_4.4_4.6" accel="2.140000" decel="4.400000" length="4.600000" carFollowModel="Krauss" maxSpeed="22.220000" color="0,0,1" />
	<vType id="man_2.14_4.4_5.0" accel="2.140000" decel="4.400000" length="5.000000" carFollowModel="Krauss" maxSpeed="22.220000" color="0,0,1" />
	<vType id="man_2.14_4.4_5.4" accel="2.140000" decel="4.400000" length="5.400000" carFollowModel="Krauss" maxSpeed="22.220000" color="0,0,1" />
	<vType id="man_1.85_3_3.8" accel="1.850000" decel="3.000000" length="3.800000" carFollowModel="Krauss" maxSpeed="22.220000" color="0,0,1" />
	<vType id="man_1.85_3_4.2" accel="1.850000" decel="3.000000" length="4.200000" carFollowModel="Krauss" maxSpeed="22.220000" color="0,0,1" />
	<vType id="man_1.85_3_4.6" accel="1.850000" decel="3.000000" length="4.600000" carFollowModel="Krauss" maxSpeed="22.220000" color="0,0,1" />
	<vType id="man_1.85_3_5.0" accel="1.850000" decel="3.000000" length="5.000000" carFollowModel="Krauss" maxSpeed="22.220000" color="0,0,1" />
	<vType id="man_1.85_3_5.4" accel="1.850000" decel="3.000000" length="5.400000" carFollowModel="Krauss" maxSpeed="22.220000" color="0,0,1" />
	<vType id="man_1.85_3.4_3.8" accel="1.850000" decel="3.400000" length="3.800000" carFollowModel="Krauss" maxSpeed="22.220000" color="0,0,1" />
	<vType id="man_1.85_3.4_4.2" accel="1.850000" decel="3.400000" length="4.200000" carFollowModel="Krauss" maxSpeed="22.220000" color="0,0,1" />
	<vType id="man_1.85_3.4_4.6" accel="1.850000" decel="3.400000" length="4.600000" carFollowModel="Krauss" maxSpeed="22.220000" color="0,0,1" />
	<vType id="man_1.85_3.4_5.0" accel="1.850000" decel="3.400000" length="5.000000" carFollowModel="Krauss" maxSpeed="22.220000" color="0,0,1" />
	<vType id="man_1.85_3.4_5.4" accel="1.850000" decel="3.400000" length="5.400000" carFollowModel="Krauss" maxSpeed="22.220000" color="0,0,1" />
	<vType id="man_1.85_3.8_3.8" accel="1.850000" decel="3.800000" length="3.800000" carFollowModel="Krauss" maxSpeed="22.220000" color="0,0,1" />
	<vType id="man_1.85_3.8_4.2" accel="1.850000" decel="3.800000" length="4.200000" carFollowModel="Krauss" maxSpeed="22.220000" color="0,0,1" />
	<vType id="man_1.85_3.8_4.6" accel="1.850000" decel="3.800000" length="4.600000" carFollowModel="Krauss" maxSpeed="22.220000" color="0,0,1" />
	<vType id="man_1.85_3.8_5.0" accel="1.850000" decel="3.800000" length="5.000000" carFollowModel="Krauss" maxSpeed="22.220000" color="0,0,1" />
	<vType id="man_1.85_3.8_5.4" accel="1.850000" decel="3.800000" length="5.400000" carFollowModel="Krauss" maxSpeed="22.220000" color="0,0,1" />
	<vType id="man_1.85_4.2_3.8" accel="1.850000" decel="4.200000" length="3.800000" carFollowModel="Krauss" maxSpeed="22.220000" color="0,0,1" />
	<vType id="man_1.85_4.2_4.2" accel="1.850000" decel="4.200000" length="4.200000" carFollowModel="Krauss" maxSpeed="22.220000" color="0,0,1" />
	<vType id="man_1.85_4.2_4.6" accel="1.850000" decel="4.200000" length="4.600000" carFollowModel="Krauss" maxSpeed="22.220000" color="0,0,1" />
	<vType id="man_1.85_4.2_5.0" accel="1.850000" decel="4.200000" length="5.000000" carFollowModel="Krauss" maxSpeed="22.220000" color="0,0,1" />
	<vType id="man_1.85_4.2_5.4" accel="1.850000" decel="4.200000" length="5.400000" carFollowModel="Krauss" maxSpeed="22.220000" color="0,0,1" />
	<vType id="man_1.85_4.4_3.8" accel="1.850000" decel="4.400000" length="3.800000" carFollowModel="Krauss" maxSpeed="22.220000" color="0,0,1" />
	<vType id="man_1.85_4.4_4.2" accel="1.850000" decel="4.400000" length="4.200000" carFollowModel="Krauss" maxSpeed="22.220000" color="0,0,1" />
	<vType id="man_1.85_4.4_4.6" accel="1.850000" decel="4.400000" length="4.600000" carFollowModel="Krauss" maxSpeed="22.220000" color="0,0,1" />
	<vType id="man_1.85_4.4_5.0" accel="1.850000" decel="4.400000" length="5.000000" carFollowModel="Krauss" maxSpeed="22.220000" color="0,0,1" />
	<vType id="man_1.85_4.4_5.4" accel="1.850000" decel="4.400000" length="5.400000" carFollowModel="Krauss" maxSpeed="22.220000" color="0,0,1" />
	<vType id="auto_9.26_3_3.8" accel="9.260000" decel="3.000000" length="3.800000" carFollowModel="CACC" maxSpeed="22.220000" color="1,1,1" />
	<vType id="auto_9.26_3_4.2" accel="9.260000" decel="3.000000" length="4.200000" carFollowModel="CACC" maxSpeed="22.220000" color="1,1,1" />
	<vType id="auto_9.26_3_4.6" accel="9.260000" decel="3.000000" length="4.600000" carFollowModel="CACC" maxSpeed="22.220000" color="1,1,1" />
	<vType id="auto_9.26_3_5.0" accel="9.260000" decel="3.000000" length="5.000000" carFollowModel="CACC" maxSpeed="22.220000" color="1,1,1" />
	<vType id="auto_9.26_3_5.4" accel="9.260000" decel="3.000000" length="5.400000" carFollowModel="CACC" maxSpeed="22.220000" color="1,1,1" />
	<vType id="auto_9.26_3.4_3.8" accel="9.260000" decel="3.400000" length="3.800000" carFollowModel="CACC" maxSpeed="22.220000" color="1,1,1" />
	<vType id="auto_9.26_3.4_4.2" accel="9.260000" decel="3.400000" length="4.200000" carFollowModel="CACC" maxSpeed="22.220000" color="1,1,1" />
	<vType id="auto_9.26_3.4_4.6" accel="9.260000" decel="3.400000" length="4.600000" carFollowModel="CACC" maxSpeed="22.220000" color="1,1,1" />
	<vType id="auto_9.26_3.4_5.0" accel="9.260000" decel="3.400000" length="5.000000" carFollowModel="CACC" maxSpeed="22.220000" color="1,1,1" />
	<vType id="auto_9.26_3.4_5.4" accel="9.260000" decel="3.400000" length="5.400000" carFollowModel="CACC" maxSpeed="22.220000" color="1,1,1" />
	<vType id="auto_9.26_3.8_3.8" accel="9.260000" decel="3.800000" length="3.800000" carFollowModel="CACC" maxSpeed="22.220000" color="1,1,1" />
	<vType id="auto_9.26_3.8_4.2" accel="9.260000" decel="3.800000" length="4.200000" carFollowModel="CACC" maxSpeed="22.220000" color="1,1,1" />
	<vType id="auto_9.26_3.8_4.6" accel="9.260000" decel="3.800000" length="4.600000" carFollowModel="CACC" maxSpeed="22.220000" color="1,1,1" />
	<vType id="auto_9.26_3.8_5.0" accel="9.260000" decel="3.800000" length="5.000000" carFollowModel="CACC" maxSpeed="22.220000" color="1,1,1" />
	<vType id="auto_9.26_3.8_5.4" accel="9.260000" decel="3.800000" length="5.400000" carFollowModel="CACC" maxSpeed="22.220000" color="1,1,1" />
	<vType id="auto_9.26_4.2_3.8" accel="9.260000" decel="4.200000" length="3.800000" carFollowModel="CACC" maxSpeed="22.220000" color="1,1,1" />
	<vType id="auto_9.26_4.2_4.2" accel="9.260000" decel="4.200000" length="4.200000" carFollowModel="CACC" maxSpeed="22.220000" color="1,1,1" />
	<vType id="auto_9.26_4.2_4.6" accel="9.260000" decel="4.200000" length="4.600000" carFollowModel="CACC" maxSpeed="22.220000" color="1,1,1" />
	<vType id="auto_9.26_4.2_5.0" accel="9.260000" decel="4.200000" length="5.000000" carFollowModel="CACC" maxSpeed="22.220000" color="1,1,1" />
	<vType id="auto_9.26_4.2_5.4" accel="9.260000" decel="4.200000" length="5.400000" carFollowModel="CACC" maxSpeed="22.220000" color="1,1,1" />
	<vType id="auto_9.26_4.4_3.8" accel="9.260000" decel="4.400000" length="3.800000" carFollowModel="CACC" maxSpeed="22.220000" color="1,1,1" />
	<vType id="auto_9.26_4.4_4.2" accel="9.260000" decel="4.400000" length="4.200000" carFollowModel="CACC" maxSpeed="22.220000" color="1,1,1" />
	<vType id="auto_9.26_4.4_4.6" accel="9.260000" decel="4.400000" length="4.600000" carFollowModel="CACC" maxSpeed="22.220000" color="1,1,1" />
	<vType id="auto_9.26_4.4_5.0" accel="9.260000" decel="4.400000" length="5.000000" carFollowModel="CACC" maxSpeed="22.220000" color="1,1,1" />
	<vType id="auto_9.26_4.4_5.4" accel="9.260000" decel="4.400000" length="5.400000" carFollowModel="CACC" maxSpeed="22.220000" color="1,1,1" />
	<vType id="auto_5.56_3_3.8" accel="5.560000" decel="3.000000" length="3.800000" carFollowModel="CACC" maxSpeed="22.220000" color="1,1,1" />
	<vType id="auto_5.56_3_4.2" accel="5.560000" decel="3.000000" length="4.200000" carFollowModel="CACC" maxSpeed="22.220000" color="1,1,1" />
	<vType id="auto_5.56_3_4.6" accel="5.560000" decel="3.000000" length="4.600000" carFollowModel="CACC" maxSpeed="22.220000" color="1,1,1" />
	<vType id="auto_5.56_3_5.0" accel="5.560000" decel="3.000000" length="5.000000" carFollowModel="CACC" maxSpeed="22.220000" color="1,1,1" />
	<vType id="auto_5.56_3_5.4" accel="5.560000" decel="3.000000" length="5.400000" carFollowModel="CACC" maxSpeed="22.220000" color="1,1,1" />
	<vType id="auto_5.56_3.4_3.8" accel="5.560000" decel="3.400000" length="3.800000" carFollowModel="CACC" maxSpeed="22.220000" color="1,1,1" />
	<vType id="auto_5.56_3.4_4.2" accel="5.560000" decel="3.400000" length="4.200000" carFollowModel="CACC" maxSpeed="22.220000" color="1,1,1" />
	<vType id="auto_5.56_3.4_4.6" accel="5.560000" decel="3.400000" length="4.600000" carFollowModel="CACC" maxSpeed="22.220000" color="1,1,1" />
	<vType id="auto_5.56_3.4_5.0" accel="5.560000" decel="3.400000" length="5.000000" carFollowModel="CACC" maxSpeed="22.220000" color="1,1,1" />