<routers>
	<vType id="man_9.26_4.5_3.8" accel="9.260000" decel="4.500000" length="3.800000" carFollowModel="Krauss" maxSpeed="22.220000" color="0,0,1" />
	<vType id="man_9.26_4.5_4.2" accel="9.260000" decel="4.500000" length="4.200000" carFollowModel="Krauss" maxSpeed="22.220000" color="0,0,1" />
	<vType id="man_9.26_4.5_4.6" accel="9.260000" decel="4.500000" length="4.600000" carFollowModel="Krauss" maxSpeed="22.220000" color="0,0,1" />
	<vType id="man_9.26_4.5_5.0" accel="9.260000" decel="4.500000" length="5.000000" carFollowModel="Krauss" maxSpeed="22.220000" color="0,0,1" />
	<vType id="man_9.26_4.5_5.4" accel="9.260000" decel="4.500000" length="5.400000" carFollowModel="Krauss" maxSpeed="22.220000" color="0,0,1" />
	<vType id="man_9.26_4.9_3.8" accel="9.260000" decel="4.900000" length="3.800000" carFollowModel="Krauss" maxSpeed="22.220000" color="0,0,1" />
	<vType id="man_9.26_4.9_4.2" accel="9.260000" decel="4.900000" length="4.200000" carFollowModel="Krauss" maxSpeed="22.220000" color="0,0,1" />
	<vType id="man_9.26_4.9_4.6" accel="9.260000" decel="4.900000" length="4.600000" carFollowModel="Krauss" maxSpeed="22.220000" color="0,0,1" />
	<vType id="man_9.26_4.9_5.0" accel="9.260000" decel="4.900000" length="5.000000" carFollowModel="Krauss" maxSpeed="22.220000" color="0,0,1" />
	<vType id="man_9.26_4.9_5.4" accel="9.260000" decel="4.900000" length="5.400000" carFollowModel="Krauss" maxSpeed="22.220000" color="0,0,1" />
	<vType id="man_9.26_5.3_3.8" accel="9.260000" decel="5.300000" length="3.800000" carFollowModel="Krauss" maxSpeed="22.220000" color="0,0,1" />
	<vType id="man_9.26_5.3_4.2" accel="9.260000" decel="5.300000" length="4.200000" carFollowModel="Krauss" maxSpeed="22.220000" color="0,0,1" />
	<vType id="man_9.26_5.3_4.6" accel="9.260000" decel="5.300000" length="4.600000" carFollowModel="Krauss" maxSpeed="22.220000" color="0,0,1" />
	<vType id="man_9.26_5.3_5.0" accel="9.260000" decel="5.300000" length="5.000000" carFollowModel="Krauss" maxSpeed="22.220000" color="0,0,1" />
	<vType id="man_9.26_5.3_5.4" accel="9.260000" decel="5.300000" length="5.400000" carFollowModel="Krauss" maxSpeed="22.220000" color="0,0,1" />
	<vType id="man_9.26_4.7_3.8" accel="9.260000" decel="4.700000" length="3.800000" carFollowModel="Krauss" maxSpeed="22.220000" color="0,0,1" />
	<vType id="man_9.26_4.7_4.2" accel="9.260000" decel="4.700000" length="4.200000" carFollowModel="Krauss" maxSpeed="22.220000" color="0,0,1" />
	<vType id="man_9.26_4.7_4.6" accel="9.260000" decel="4.700000" length="4.600000" carFollowModel="Krauss" maxSpeed="22.220000" color="0,0,1" />
	<vType id="man_9.26_4.7_5.0" accel="9.260000" decel="4.700000" length="5.000000" carFollowModel="Krauss" maxSpeed="22.220000" color="0,0,1" />
	<vType id="man_9.26_4.7_5.4" accel="9.260000" decel="4.700000" length="5.400000" carFollowModel="Krauss" maxSpeed="22.220000" color="0,0,1" />
	<vType id="man_9.26_5.9_3.8" accel="9.260000" decel="5.900000" length="3.800000" carFollowModel="Krauss" maxSpeed="22.220000" color="0,0,1" />
	<vType id="man_9.26_5.9_4.2" accel="9.260000" decel="5.900000" length="4.200000" carFollowModel="Krauss" maxSpeed="22.220000" color="0,0,1" />
	<vType id="man_9.26_5.9_4.6" accel="9.260000" decel="5.900000" length="4.600000" carFollowModel="Krauss" maxSpeed="22.220000" color="0,0,1" />
	<vType id="man_9.26_5.9_5.0" accel="9.260000" decel="5.900000" length="5.000000" carFollowModel="Krauss" maxSpeed="22.220000" color="0,0,1" />
	<vType id="man_9.26_5.9_5.4" accel="9.260000" decel="5.900000" length="5.400000" carFollowModel="Krauss" maxSpeed="22.220000" color="0,0,1" />
	<vType id="man_5.56_4.5_3.8" accel="5.560000" decel="4.500000" length="3.800000" carFollowModel="Krauss" maxSpeed="22.220000" color="0,0,1" />
	<vType id="man_5.56_4.5_4.2" accel="5.560000" decel="4.500000" length="4.200000" carFollowModel="Krauss" maxSpeed="22.220000" color="0,0,1" />
	<vType id="man_5.56_4.5_4.6" accel="5.560000" decel="4.500000" length="4.600000" carFollowModel="Krauss" maxSpeed="22.220000" color="0,0,1" />
	<vType id="man_5.56_4.5_5.0" accel="5.560000" decel="4.500000" length="5.000000" carFollowModel="Krauss" maxSpeed="22.220000" color="0,0,1" />
	<vType id="man_5.56_4.5_5.4" accel="5.560000" decel="4.500000" length="5.400000" carFollowModel="Krauss" maxSpeed="22.220000" color="0,0,1" />
	<vType id="man_5.56_4.9_3.8" accel="5.560000" decel="4.900000" length="3.800000" carFollowModel="Krauss" maxSpeed="22.220000" color="0,0,1" />
	<vType id="man_5.56_4.9_4.2" accel="5.560000" decel="4.900000" length="4.200000" carFollowModel="Krauss" maxSpeed="22.220000" color="0,0,1" />
	<vType id="man_5.56_4.9_4.6" accel="5.560000" decel="4.900000" length="4.600000" carFollowModel="Krauss" maxSpeed="22.220000" color="0,0,1" />
	<vType id="man_5.56_4.9_5.0" accel="5.560000" decel="4.900000" length="5.000000" carFollowModel="Krauss" maxSpeed="22.220000" color="0,0,1" />
	<vType id="man_5.56_4.9_5.4" accel="5.560000" decel="4.900000" length="5.400000" carFollowModel="Krauss" maxSpeed="22.220000" color="0,0,1" />
	<vType id="man_5.56_5.3_3.8" accel="5.560000" decel="5.300000" length="3.800000" carFollowModel="Krauss" maxSpeed="22.220000" color="0,0,1" />
	<vType id="man_5.56_5.3_4.2" accel="5.560000" decel="5.300000" length="4.200000" carFollowModel="Krauss" maxSpeed="22.220000" color="0,0,1" />
	<vType id="man_5.56_5.3_4.6" accel="5.560000" decel="5.300000" length="4.600000" carFollowModel="Krauss" maxSpeed="22.220000" color="0,0,1" />
	<vType id="man_5.56_5.3_5.0" accel="5.560000" decel="5.300000" length="5.000000" carFollowModel="Krauss" maxSpeed="22.220000" color="0,0,1" />
	<vType id="man_5.56_5.3_5.4" accel="5.560000" decel="5.300000" length="5.400000" carFollowModel="Krauss" maxSpeed="22.220000" color="0,0,1" />
	<vType id="man_5.56_4.7_3.8" accel="5.560000" decel="4.700000" length="3.800000" carFollowModel="Krauss" maxSpeed="22.220000" color="0,0,1" />
	<vType id="man_5.56_4.7_4.2" accel="5.560000" decel="4.700000" length="4.200000" carFollowModel="Krauss" maxSpeed="22.220000" color="0,0,1" />
	<vType id="man_5.56_4.7_4.6" accel="5.560000" decel="4.700000" length="4.600000" carFollowModel="Krauss" maxSpeed="22.220000" color="0,0,1" />
	<vType id="man_5.56_4.7_5.0" accel="5.560000" decel="4.700000" length="5.000000" carFollowModel="Krauss" maxSpeed="22.220000" color="0,0,1" />
	<vType id="man_5.56_4.7_5.4" accel="5.560000" decel="4.700000" length="5.400000" carFollowModel="Krauss" maxSpeed="22.220000" color="0,0,1" />
	<vType id="man_5.56_5.9_3.8" accel="5.560000" decel="5.900000" length="3.800000" carFollowModel="Krauss" maxSpeed="22.220000" color="0,0,1" />
	<vType id="man_5.56_5.9_4.2" accel="5.560000" decel="5.900000" length="4.200000" carFollowModel="Krauss" maxSpeed="22.220000" color="0,0,1" />
	<vType id="man_5.56_5.9_4.6" accel="5.560000" decel="5.900000" length="4.600000" carFollowModel="Krauss" maxSpeed="22.220000" color="0,0,1" />
	<vType id="man_5.56_5.9_5.0" accel="5.560000" decel="5.900000" length="5.000000" carFollowModel="Krauss" maxSpeed="22.220000" color="0,0,1" />
	<vType id="man_5.56_5.9_5.4" accel="5.560000" decel="5.900000" length="5.400000" carFollowModel="Krauss" maxSpeed="22.220000" color="0,0,1" />
	<vType id="man_3.96_4.5_3.8" accel="3.960000" decel="4.500000" length="3.800000" carFollowModel="Krauss" maxSpeed="22.220000" color="0,0,1" />
	<vType id="man_3.96_4.5_4.2" accel="3.960000" decel="4.500000" length="4.200000" carFollowModel="Krauss" maxSpeed="22.220000" color="0,0,1" />
	<vType id="man_3.96_4.5_4.6" accel="3.960000" decel="4.500000" length="4.600000" carFollowModel="Krauss" maxSpeed="22.220000" color="0,0,1" />
	<vType id="man_3.96_4.5_5.0" accel="3.960000" decel="4.500000" length="5.000000" carFollowModel="Krauss" maxSpeed="22.220000" color="0,0,1" />
	<vType id="man_3.96_4.5_5.4" accel="3.960000" decel="4.500000" length="5.400000" carFollowModel="Krauss" maxSpeed="22.220000" color="0,0,1" />
	<vType id="man_3.96_4.9_3.8" accel="3.960000" decel="4.900000" length="3.800000" carFollowModel="Krauss" maxSpeed="22.220000" color="0,0,1" />
	<vType id="man_3.96_4.9_4.2" accel="3.960000" decel="4.900000" length="4.200000" carFollowModel="Krauss" maxSpeed="22.220000" color="0,0,1" />
	<vType id="man_3.96_4.9_4.6" accel="3.960000" decel="4.900000" length="4.600000" carFollowModel="Krauss" maxSpeed="22.220000" color="0,0,1" />
	<vType id="man_3.96_4.9_5.0" accel="3.960000" decel="4.900000" length="5.000000" carFollowModel="Krauss" maxSpeed="22.220000" color="0,0,1" />
	<vType id="man_3.96_4.9_5.4" accel="3.960000" decel="4.900000" length="5.400000" carFollowModel="Krauss" maxSpeed="22.220000" color="0,0,1" />
	<vType id="man_3.96_5.3_3.8" accel="3.960000" decel="5.300000" length="3.800000" carFollowModel="Krauss" maxSpeed="22.220000" color="0,0,1" />
	<vType id="man_3.96_5.3_4.2" accel="3.960000" decel="5.300000" length="4.200000" carFollowModel="Krauss" maxSpeed="22.220000" color="0,0,1" />
	<vType id="man_3.96_5.3_4.6" accel="3.960000" decel="5.300000" length="4.600000" carFollowModel="Krauss" maxSpeed="22.220000" color="0,0,1" />
	<vType id="man_3.96_5.3_5.0" accel="3.960000" decel="5.300000" length="5.000000" carFollowModel="Krauss" maxSpeed="22.220000" color="0,0,1" />
	<vType id="man_3.96_5.3_5.4" accel="3.960000" decel="5.300000" length="5.400000" carFollowModel="Krauss" maxSpeed="22.220000" color="0,0,1" />
	<vType id="man_3.96_4.7_3.8" accel="3.960000" decel="4.700000" length="3.800000" carFollowModel="Krauss" maxSpeed="22.220000" color="0,0,1" />
	<vType id="man_3.96_4.7_4.2" accel="3.960000" decel="4.700000" length="4.200000" carFollowModel="Krauss" maxSpeed="22.220000" color="0,0,1" />
	<vType id="man_3.96_4.7_4.6" accel="3.960000" decel="4.700000" length="4.600000" carFollowModel="Krauss" maxSpeed="22.220000" color="0,0,1" />
	<vType id="man_3.96_4.7_5.0" accel="3.960000" decel="4.700000" length="5.000000" carFollowModel="Krauss" maxSpeed="22.220000" color="0,0,1" />
	<vType id="man_3.96_4.7_5.4" accel="3.960000" decel="4.700000" length="5.400000" carFollowModel="Krauss" maxSpeed="22.220000" color="0,0,1" />
	<vType id="man_3.96_5.9_3.8" accel="3.960000" decel="5.900000" length="3.800000" carFollowModel="Krauss" maxSpeed="22.220000" color="0,0,1" />
	<vType id="man_3.96_5.9_4.2" accel="3.960000" decel="5.900000" length="4.200000" carFollowModel="Krauss" maxSpeed="22.220000" color="0,0,1" />
	<vType id="man_3.96_5.9_4.6" accel="3.960000" decel="5.900000" length="4.600000" carFollowModel="Krauss" maxSpeed="22.220000" color="0,0,1" />
	<vType id="man_3.96_5.9_5.0" accel="3.960000" decel="5.900000" length="5.000000" carFollowModel="Krauss" maxSpeed="22.220000" color="0,0,1" />
	<vType id="man_3.96_5.9_5.4" accel="3.960000" decel="5.900000" length="5.400000" carFollowModel="Krauss" maxSpeed="22.220000" color="0,0,1" />
	<vType id="man_3.09_4.5_3.8" accel="3.090000" decel="4.500000" length="3.800000" carFollowModel="Krauss" maxSpeed="22.220000" color="0,0,1" />
	<vType id="man_3.09_4.5_4.2" accel="3.090000" decel="4.500000" length="4.200000" carFollowModel="Krauss" maxSpeed="22.220000" color="0,0,1" />
	<vType id="man_3.09_4.5_4.6" accel="3.090000" decel="4.500000" length="4.600000" carFollowModel="Krauss" maxSpeed="22.220000" color="0,0,1" />
	<vType id="man_3.09_4.5_5.0" accel="3.090000" decel="4.500000" length="5.000000" carFollowModel="Krauss" maxSpeed="22.220000" color="0,0,1" />
	<vType id="man_3.09_4.5_5.4" accel="3.090000" decel="4.500000" length="5.400000" carFollowModel="Krauss" maxSpeed="22.220000" color="0,0,1" />
	<vType id="man_3.09_4.9_3.8" accel="3.090000" decel="4.900000" length="3.800000" carFollowModel="Krauss" maxSpeed="22.220000" color="0,0,1" />
	<vType id="man_3.09_4.9_4.2" accel="3.090000" decel="4.900000" length="4.200000" carFollowModel="Krauss" maxSpeed="22.220000" color="0,0,1" />
	<vType id="man_3.09_4.9_4.6" accel="3.090000" decel="4.900000" length="4.600000" carFollowModel="Krauss" maxSpeed="22.220000" color="0,0,1" />
	<vType id="man_3.09_4.9_5.0" accel="3.090000" decel="4.900000" length="5.000000" carFollowModel="Krauss" maxSpeed="22.220000" color="0,0,1" />
	<vType id="man_3.09_4.9_5.4" accel="3.090000" decel="4.900000" length="5.400000" carFollowModel="Krauss" maxSpeed="22.220000" color="0,0,1" />
	<vType id="man_3.09_5.3_3.8" accel="3.090000" decel="5.300000" length="3.800000" carFollowModel="Krauss" maxSpeed="22.220000" color="0,0,1" />
	<vType id="man_3.09_5.3_4.2" accel="3.090000" decel="5.300000" length="4.200000" carFollowModel="Krauss" maxSpeed="22.220000" color="0,0,1" />
	<vType id="man_3.09_5.3_4.6" accel="3.090000" decel="5.300000" length="4.600000" carFollowModel="Krauss" maxSpeed="22.220000" color="0,0,1" />
	<vType id="man_3.09_5.3_5.0" accel="3.090000" decel="5.300000" length="5.000000" carFollowModel="Krauss" maxSpeed="22.220000" color="0,0,1" />
	<vType id="man_3.09_5.3_5.4" accel="3.090000" decel="5.300000" length="5.400000" carFollowModel="Krauss" maxSpeed="22.220000" color="0,0,1" />
	<vType id="man_3.09_4.7_3.8" accel="3.090000" decel="4.700000" length="3.800000" carFollowModel="Krauss" maxSpeed="22.220000" color="0,0,1" />
	<vType id="man_3.09_4.7_4.2" accel="3.090000" decel="4.700000" length="4.200000" carFollowModel="Krauss" maxSpeed="22.220000" color="0,0,1" />
	<vType id="man_3.09_4.7_4.6" accel="3.090000" decel="4.700000" length="4.600000" carFollowModel="Krauss" maxSpeed="22.220000" color="0,0,1" />
	<vType id="man_3.09_4.7_5.0" accel="3.090000" decel="4.700000" length="5.000000" carFollowModel="Krauss" maxSpeed="22.220000" color="0,0,1" />
	<vType id="man_3.09_4.7_5.4" accel="3.090000" decel="4.700000" length="5.400000" carFollowModel="Krauss" maxSpeed="22.220000" color="0,0,1" />
	<vType id="man_3.09_5.9_3.8" accel="3.090000" decel="5.900000" length="3.800000" carFollowModel="Krauss" maxSpeed="22.220000" color="0,0,1" />
	<vType id="man_3.09_5.9_4.2" accel="3.090000" decel="5.900000" length="4.200000" carFollowModel="Krauss" maxSpeed="22.220000" color="0,0,1" />
	<vType id="man_3.09_5.9_4.6" accel="3.090000" decel="5.900000" length="4.600000" carFollowModel="Krauss" maxSpeed="22.220000" color="0,0,1" />
	<vType id="man_3.09_5.9_5.0" accel="3.090000" decel="5.900000" length="5.000000" carFollowModel="Krauss" maxSpeed="22.220000" color="0,0,1" />
	<vType id="man_3.09_5.9_5.4" accel="3.090000" decel="5.900000" length="5.400000" carFollowModel="Krauss" maxSpeed="22.220000" color="0,0,1" />
	<vType id="man_2.53_4.5_3.8" accel="2.530000" decel="4.500000" length="3.800000" carFollowModel="Krauss" maxSpeed="22.220000" color="0,0,1" />
	<vType id="man_2.53_4.5_4.2" accel="2.530000" decel="4.500000" length="4.200000" carFollowModel="Krauss" maxSpeed="22.220000" color="0,0,1" />
	<vType id="man_2.53_4.5_4.6" accel="2.530000" decel="4.500000" length="4.600000" carFollowModel="Krauss" maxSpeed="22.220000" color="0,0,1" />
	<vType id="man_2.53_4.5_5.0" accel="2.530000" decel="4.500000" length="5.000000" carFollowModel="Krauss" maxSpeed="22.220000" color="0,0,1" />
	<vType id="man_2.53_4.5_5.4" accel="2.530000" decel="4.500000" length="5.400000" carFollowModel="Krauss" maxSpeed="22.220000" color="0,0,1" />
	<vType id="man_2.53_4.9_3.8" accel="2.530000" decel="4.900000" length="3.800000" carFollowModel="Krauss" maxSpeed="22.220000" color="0,0,1" />
	<vType id="man_2.53_4.9_4.2" accel="2.530000" decel="4.900000" length="4.200000" carFollowModel="Krauss" maxSpeed="22.220000" color="0,0,1" />
	<vType id="man_2.53_4.9_4.6" accel="2.530000" decel="4.900000" length="4.600000" carFollowModel="Krauss" maxSpeed="22.220000" color="0,0,1" />
	<vType id="man_2.53_4.9_5.0" accel="2.530000" decel="4.900000" length="5.000000" carFollowModel="Krauss" maxSpeed="22.220000" color="0,0,1" />
	<vType id="man_2.53_4.9_5.4" accel="2.530000" decel="4.900000" length="5.400000" carFollowModel="Krauss" maxSpeed="22.220000" color="0,0,1" />
	<vType id="man_2.53_5.3_3.8" accel="2.530000" decel="5.300000" length="3.800000" carFollowModel="Krauss" maxSpeed="22.220000" color="0,0,1" />
	<vType id="man_2.53_5.3_4.2" accel="2.530000" decel="5.300000" length="4.200000" carFollowModel="Krauss" maxSpeed="22.220000" color="0,0,1" />
	<vType id="man_2.53_5.3_4.6" accel="2.530000" decel="5.300000" length="4.600000" carFollowModel="Krauss" maxSpeed="22.220000" color="0,0,1" />
	<vType id="man_2.53_5.3_5.0" accel="2.530000" decel="5.300000" length="5.000000" carFollowModel="Krauss" maxSpeed="22.220000" color="0,0,1" />
	<vType id="man_2.53_5.3_5.4" accel="2.530000" decel="5.300000" length="5.400000" carFollowModel="Krauss" maxSpeed="22.220000" color="0,0,1" />
	<vType id="man_2.53_4.7_3.8" accel="2.530000" decel="4.700000" length="3.800000" carFollowModel="Krauss" maxSpeed="22.220000" color="0,0,1" />
	<vType id="man_2.53_4.7_4.2" accel="2.530000" decel="4.700000" length="4.200000" carFollowModel="Krauss" maxSpeed="22.220000" color="0,0,1" />
	<vType id="man_2.53_4.7_4.6" accel="2.530000" decel="4.700000" length="4.600000" carFollowModel="Krauss" maxSpeed="22.220000" color="0,0,1" />
	<vType id="man_2.53_4.7_5.0" accel="2.530000" decel="4.700000" length="5.000000" carFollowModel="Krauss" maxSpeed="22.220000" color="0,0,1" />
	<vType id="man_2.53_4.7_5.4" accel="2.530000" decel="4.700000" length="5.400000" carFollowModel="Krauss" maxSpeed="22.220000" color="0,0,1" />
	<vType id="man_2.53_5.9_3.8" accel="2.530000" decel="5.900000" length="3.800000" carFollowModel="Krauss" maxSpeed="22.220000" color="0,0,1" />
	<vType id="man_2.53_5.9_4.2" accel="2.530000" decel="5.900000" length="4.200000" carFollowModel="Krauss" maxSpeed="22.220000" color="0,0,1" />
	<vType id="man_2.53_5.9_4.6" accel="2.530000" decel="5.900000" length="4.600000" carFollowModel="Krauss" maxSpeed="22.220000" color="0,0,1" />
	<vType id="man_2.53_5.9_5.0" accel="2.530000" decel="5.900000" length="5.000000" carFollowModel="Krauss" maxSpeed="22.220000" color="0,0,1" />
	<vType id="man_2.53_5.9_5.4" accel="2.530000" decel="5.900000" length="5.400000" carFollowModel="Krauss" maxSpeed="22.220000" color="0,0,1" />
	<vType id="man_2.14_4.5_3.8" accel="2.140000" decel="4.500000" length="3.800000" carFollowModel="Krauss" maxSpeed="22.220000" color="0,0,1" />
	<vType id="man_2.14_4.5_4.2" accel="2.140000" decel="4.500000" length="4.200000" carFollowModel="Krauss" maxSpeed="22.220000" color="0,0,1" />
	<vType id="man_2.14_4.5_4.6" accel="2.140000" decel="4.500000" length="4.600000" carFollowModel="Krauss" maxSpeed="22.220000" color="0,0,1" />
	<vType id="man_2.14_4.5_5.0" accel="2.140000" decel="4.500000" length="5.000000" carFollowModel="Krauss" maxSpeed="22.220000" color="0,0,1" />
	<vType id="man_2.14_4.5_5.4" accel="2.140000" decel="4.500000" length="5.400000" carFollowModel="Krauss" maxSpeed="22.220000" color="0,0,1" />
	<vType id="man_2.14_4.9_3.8" accel="2.140000" decel="4.900000" length="3.800000" carFollowModel="Krauss" maxSpeed="22.220000" color="0,0,1" />
	<vType id="man_2.14_4.9_4.2" accel="2.140000" decel="4.900000" length="4.200000" carFollowModel="Krauss" maxSpeed="22.220000" color="0,0,1" />
	<vType id="man_2.14_4.9_4.6" accel="2.140000" decel="4.900000" length="4.600000" carFollowModel="Krauss" maxSpeed="22.220000" color="0,0,1" />
	<vType id="man_2.14_4.9_5.0" accel="2.140000" decel="4.900000" length="5.000000" carFollowModel="Krauss" maxSpeed="22.220000" color="0,0,1" />
	<vType id="man_2.14_4.9_5.4" accel="2.140000" decel="4.900000" length="5.400000" carFollowModel="Krauss" maxSpeed="22.220000" color="0,0,1" />
	<vType id="man_2.14_5.3_3.8" accel="2.140000" decel="5.300000" length="3.800000" carFollowModel="Krauss" maxSpeed="22.220000" color="0,0,1" />
	<vType id="man_2.14_5.3_4.2" accel="2.140000" decel="5.300000" length="4.200000" carFollowModel="Krauss" maxSpeed="22.220000" color="0,0,1" />
	<vType id="man_2.14_5.3_4.6" accel="2.140000" decel="5.300000" length="4.600000" carFollowModel="Krauss" maxSpeed="22.220000" color="0,0,1" />
	<vType id="man_2.14_5.3_5.0" accel="2.140000" decel="5.300000" length="5.000000" carFollowModel="Krauss" maxSpeed="22.220000" color="0,0,1" />
	<vType id="man_2.14_5.3_5.4" accel="2.140000" decel="5.300000" length="5.400000" carFollowModel="Krauss" maxSpeed="22.220000" color="0,0,1" />
	<vType id="man_2.14_4.7_3.8" accel="2.140000" decel="4.700000" length="3.800000" carFollowModel="Krauss" maxSpeed="22.220000" color="0,0,1" />
	<vType id="man_2.14_4.7_4.2" accel="2.140000" decel="4.700000" length="4.200000" carFollowModel="Krauss" maxSpeed="22.220000" color="0,0,1" />
	<vType id="man_2.14_4.7_4.6" accel="2.140000" decel="4.700000" length="4.600000" carFollowModel="Krauss" maxSpeed="22.220000" color="0,0,1" />
	<vType id="man_2.14_4.7_5.0" accel="2.140000" decel="4.700000" length="5.000000" carFollowModel="Krauss" maxSpeed="22.220000" color="0,0,1" />
	<vType id="man_2.14_4.7_5.4" accel="2.140000" decel="4.700000" length="5.400000" carFollowModel="Krauss" maxSpeed="22.220000" color="0,0,1" />
	<vType id="man_2.14_5.9_3.8" accel="2.140000" decel="5.900000" length="3.800000" carFollowModel="Krauss" maxSpeed="22.220000" color="0,0,1" />
	<vType id="man_2.14_5.9_4.2" accel="2.140000" decel="5.900000" length="4.200000" carFollowModel="Krauss" maxSpeed="22.220000" color="0,0,1" />
	<vType id="man_2.14_5.9_4.6" accel="2.140000" decel="5.900000" length="4.600000" carFollowModel="Krauss" maxSpeed="22.220000" color="0,0,1" />
	<vType id="man_2.14_5.9_5.0" accel="2.140000" decel="5.900000" length="5.000000" carFollowModel="Krauss" maxSpeed="22.220000" color="0,0,1" />
	<vType id="man_2.14_5.9_5.4" accel="2.140000" decel="5.900000" length="5.400000" carFollowModel="Krauss" maxSpeed="22.220000" color="0,0,1" />
	<vType id="man_1.85_4.5_3.8" accel="1.850000" decel="4.500000" length="3.800000" carFollowModel="Krauss" maxSpeed="22.220000" color="0,0,1" />
	<vType id="man_1.85_4.5_4.2" accel="1.850000" decel="4.500000" length="4.200000" carFollowModel="Krauss" maxSpeed="22.220000" color="0,0,1" />
	<vType id="man_1.85_4.5_4.6" accel="1.850000" decel="4.500000" length="4.600000" carFollowModel="Krauss" maxSpeed="22.220000" color="0,0,1" />
	<vType id="man_1.85_4.5_5.0" accel="1.850000" decel="4.500000" length="5.000000" carFollowModel="Krauss" maxSpeed="22.220000" color="0,0,1" />
	<vType id="man_1.85_4.5_5.4" accel="1.850000" decel="4.500000" length="5.400000" carFollowModel="Krauss" maxSpeed="22.220000" color="0,0,1" />
	<vType id="man_1.85_4.9_3.8" accel="1.850000" decel="4.900000" length="3.800000" carFollowModel="Krauss" maxSpeed="22.220000" color="0,0,1" />
	<vType id="man_1.85_4.9_4.2" accel="1.850000" decel="4.900000" length="4.200000" carFollowModel="Krauss" maxSpeed="22.220000" color="0,0,1" />
	<vType id="man_1.85_4.9_4.6" accel="1.850000" decel="4.900000" length="4.600000" carFollowModel="Krauss" maxSpeed="22.220000" color="0,0,1" />
	<vType id="man_1.85_4.9_5.0" accel="1.850000" decel="4.900000" length="5.000000" carFollowModel="Krauss" maxSpeed="22.220000" color="0,0,1" />
	<vType id="man_1.85_4.9_5.4" accel="1.850000" decel="4.900000" length="5.400000" carFollowModel="Krauss" maxSpeed="22.220000" color="0,0,1" />
	<vType id="man_1.85_5.3_3.8" accel="1.850000" decel="5.300000" length="3.800000" carFollowModel="Krauss" maxSpeed="22.220000" color="0,0,1" />
	<vType id="man_1.85_5.3_4.2" accel="1.850000" decel="5.300000" length="4.200000" carFollowModel="Krauss" maxSpeed="22.220000" color="0,0,1" />
	<vType id="man_1.85_5.3_4.6" accel="1.850000" decel="5.300000" length="4.600000" carFollowModel="Krauss" maxSpeed="22.220000" color="0,0,1" />
	<vType id="man_1.85_5.3_5.0" accel="1.850000" decel="5.300000" length="5.000000" carFollowModel="Krauss" maxSpeed="22.220000" color="0,0,1" />
	<vType id="man_1.85_5.3_5.4" accel="1.850000" decel="5.300000" length="5.400000" carFollowModel="Krauss" maxSpeed="22.220000" color="0,0,1" />
	<vType id="man_1.85_4.7_3.8" accel="1.850000" decel="4.700000" length="3.800000" carFollowModel="Krauss" maxSpeed="22.220000" color="0,0,1" />
	<vType id="man_1.85_4.7_4.2" accel="1.850000" decel="4.700000" length="4.200000" carFollowModel="Krauss" maxSpeed="22.220000" color="0,0,1" />
	<vType id="man_1.85_4.7_4.6" accel="1.850000" decel="4.700000" length="4.600000" carFollowModel="Krauss" maxSpeed="22.220000" color="0,0,1" />
	<vType id="man_1.85_4.7_5.0" accel="1.850000" decel="4.700000" length="5.000000" carFollowModel="Krauss" maxSpeed="22.220000" color="0,0,1" />
	<vType id="man_1.85_4.7_5.4" accel="1.850000" decel="4.700000" length="5.400000" carFollowModel="Krauss" maxSpeed="22.220000" color="0,0,1" />
	<vType id="man_1.85_5.9_3.8" accel="1.850000" decel="5.900000" length="3.800000" carFollowModel="Krauss" maxSpeed="22.220000" color="0,0,1" />
	<vType id="man_1.85_5.9_4.2" accel="1.850000" decel="5.900000" length="4.200000" carFollowModel="Krauss" maxSpeed="22.220000" color="0,0,1" />
	<vType id="man_1.85_5.9_4.6" accel="1.850000" decel="5.900000" length="4.600000" carFollowModel="Krauss" maxSpeed="22.220000" color="0,0,1" />
	<vType id="man_1.85_5.9_5.0" accel="1.850000" decel="5.900000" length="5.000000" carFollowModel="Krauss" maxSpeed="22.220000" color="0,0,1" />
	<vType id="man_1.85_5.9_5.4" accel="1.850000" decel="5.900000" length="5.400000" carFollowModel="Krauss" maxSpeed="22.220000" color="0,0,1" />
	<vType id="auto_9.26_4.5_3.8" accel="9.260000" decel="4.500000" length="3.800000" carFollowModel="CACC" maxSpeed="22.220000" color="1,1,1" />
	<vType id="auto_9.26_4.5_4.2" accel="9.260000" decel="4.500000" length="4.200000" carFollowModel="CACC" maxSpeed="22.220000" color="1,1,1" />
	<vType id="auto_9.26_4.5_4.6" accel="9.260000" decel="4.500000" length="4.600000" carFollowModel="CACC" maxSpeed="22.220000" color="1,1,1" />
	<vType id="auto_9.26_4.5_5.0" accel="9.260000" decel="4.500000" length="5.000000" carFollowModel="CACC" maxSpeed="22.220000" color="1,1,1" />
	<vType id="auto_9.26_4.5_5.4" accel="9.260000" decel="4.500000" length="5.400000" carFollowModel="CACC" maxSpeed="22.220000" color="1,1,1" />
	<vType id="auto_9.26_4.9_3.8" accel="9.260000" decel="4.900000" length="3.800000" carFollowModel="CACC" maxSpeed="22.220000" color="1,1,1" />
	<vType id="auto_9.26_4.9_4.2" accel="9.260000" decel="4.900000" length="4.200000" carFollowModel="CACC" maxSpeed="22.220000" color="1,1,1" />
	<vType id="auto_9.26_4.9_4.6" accel="9.260000" decel="4.900000" length="4.600000" carFollowModel="CACC" maxSpeed="22.220000" color="1,1,1" />
	<vType id="auto_9.26_4.9_5.0" accel="9.260000" decel="4.900000" length="5.000000" carFollowModel="CACC" maxSpeed="22.220000" color="1,1,1" />
	<vType id="auto_9.26_4.9_5.4" accel="9.260000" decel="4.900000" length="5.400000" carFollowModel="CACC" maxSpeed="22.220000" color="1,1,1" />
	<vType id="auto_9.26_5.3_3.8" accel="9.260000" decel="5.300000" length="3.800000" carFollowModel="CACC" maxSpeed="22.220000" color="1,1,1" />
	<vType id="auto_9.26_5.3_4.2" accel="9.260000" decel="5.300000" length="4.200000" carFollowModel="CACC" maxSpeed="22.220000" color="1,1,1" />
	<vType id="auto_9.26_5.3_4.6" accel="9.260000" decel="5.300000" length="4.600000" carFollowModel="CACC" maxSpeed="22.220000" color="1,1,1" />
	<vType id="auto_9.26_5.3_5.0" accel="9.260000" decel="5.300000" length="5.000000" carFollowModel="CACC" maxSpeed="22.220000" color="1,1,1" />
	<vType id="auto_9.26_5.3_5.4" accel="9.260000" decel="5.300000" length="5.400000" carFollowModel="CACC" maxSpeed="22.220000" color="1,1,1" />
	<vType id="auto_9.26_4.7_3.8" accel="9.260000" decel="4.700000" length="3.800000" carFollowModel="CACC" maxSpeed="22.220000" color="1,1,1" />
	<vType id="auto_9.26_4.7_4.2" accel="9.260000" decel="4.700000" length="4.200000" carFollowModel="CACC" maxSpeed="22.220000" color="1,1,1" />
	<vType id="auto_9.26_4.7_4.6" accel="9.260000" decel="4.700000" length="4.600000" carFollowModel="CACC" maxSpeed="22.220000" color="1,1,1" />
	<vType id="auto_9.26_4.7_5.0" accel="9.260000" decel="4.700000" length="5.000000" carFollowModel="CACC" maxSpeed="22.220000" color="1,1,1" />
	<vType id="auto_9.26_4.7_5.4" accel="9.260000" decel="4.700000" length="5.400000" carFollowModel="CACC" maxSpeed="22.220000" color="1,1,1" />
	<vType id="auto_9.26_5.9_3.8" accel="9.260000" decel="5.900000" length="3.800000" carFollowModel="CACC" maxSpeed="22.220000" color="1,1,1" />
	<vType id="auto_9.26_5.9_4.2" accel="9.260000" decel="5.900000" length="4.200000" carFollowModel="CACC" maxSpeed="22.220000" color="1,1,1" />
	<vType id="auto_9.26_5.9_4.6" accel="9.260000" decel="5.900000" length="4.600000" carFollowModel="CACC" maxSpeed="22.220000" color="1,1,1" />
	<vType id="auto_9.26_5.9_5.0" accel="9.260000" decel="5.900000" length="5.000000" carFollowModel="CACC" maxSpeed="22.220000" color="1,1,1" />
	<vType id="auto_9.26_5.9_5.4" accel="9.260000" decel="5.900000" length="5.400000" carFollowModel="CACC" maxSpeed="22.220000" color="1,1,1" />
	<vType id="auto_5.56_4.5_3.8" accel="5.560000" decel="4.500000" length="3.800000" carFollowModel="CACC" maxSpeed="22.220000" color="1,1,1" />
	<vType id="auto_5.56_4.5_4.2" accel="5.560000" decel="4.500000" length="4.200000" carFollowModel="CACC" maxSpeed="22.220000" color="1,1,1" />
	<vType id="auto_5.56_4.5_4.6" accel="5.560000" decel="4.500000" length="4.600000" carFollowModel="CACC" maxSpeed="22.220000" color="1,1,1" />
	<vType id="auto_5.56_4.5_5.0" accel="5.560000" decel="4.500000" length="5.000000" carFollowModel="CACC" maxSpeed="22.220000" color="1,1,1" />
	<vType id="auto_5.56_4.5_5.4" accel="5.560000" decel="4.500000" length="5.400000" carFollowModel="CACC" maxSpeed="22.220000" color="1,1,1" />
	<vType id="auto_5.56_4.9_3.8" accel="5.560000" decel="4.900000" length="3.800000" carFollowModel="CACC" maxSpeed="22.220000" color="1,1,1" />
	<vType id="auto_5.56_4.9_4.2" accel="5.560000" decel="4.900000" length="4.200000" carFollowModel="CACC" maxSpeed="22.220000" color="1,1,1" />
	<vType id="auto_5.56_4.9_4.6" accel="5.560000" decel="4.900000" length="4.600000" carFollowModel="CACC" maxSpeed="22.220000" color="1,1,1" />